----------------------------------------------------------
Initialized.
BEGIN Configuration File: anynet_config_TransPIM
topology = anynet;


routing_function = min;
network_file = anynet_TransPIM;
//network_file = anynet_m3d_mesh_config;
traffic = trace_based;
injection_process = trace_based;

use_read_write = 0;

sample_period = 10000;
injection_rate = 0.01; //check


// Constant delays
routing_delay = 1;
vc_alloc_delay = 1;
sw_alloc_delay = 1;
st_final_delay = 1;

packet_size = 1; //fixed

vc_allocator = separable_input_first; 
sw_allocator = separable_input_first;
alloc_iters  = 1;

sample_period = 100000;
warmup_periods = 0;
max_samples = 1;

num_vcs = 3;

buf_size = 10;
vc_buf_size = 10;
output_buffer_size = 1;

private_bufs = 1;
private_buf_size = 1;

sim_power = 1; //fixed

tech_file = techfile.txt; //change accordingly 

channel_width = 32;

END Configuration File: anynet_config_TransPIM
========================Network File Parsed=================
******************node listing**********************
Node 0	Router 0
Node 1	Router 1
Node 2	Router 2
Node 3	Router 3
Node 4	Router 4
Node 5	Router 5
Node 6	Router 6
Node 7	Router 7
Node 8	Router 8
Node 9	Router 9
Node 10	Router 10
Node 11	Router 11
Node 12	Router 12
Node 13	Router 13
Node 14	Router 14
Node 15	Router 15
Node 16	Router 16
Node 17	Router 17
Node 18	Router 18
Node 19	Router 19
Node 20	Router 20
Node 21	Router 21
Node 22	Router 22
Node 23	Router 23
Node 24	Router 24
Node 25	Router 25
Node 26	Router 26
Node 27	Router 27
Node 28	Router 28
Node 29	Router 29
Node 30	Router 30
Node 31	Router 31
Node 32	Router 32
Node 33	Router 33
Node 34	Router 34
Node 35	Router 35
Node 36	Router 36

****************router to node listing*************
Router 0
	 Node 0 lat 1
Router 1
	 Node 1 lat 1
Router 2
	 Node 2 lat 1
Router 3
	 Node 3 lat 1
Router 4
	 Node 4 lat 1
Router 5
	 Node 5 lat 1
Router 6
	 Node 6 lat 1
Router 7
	 Node 7 lat 1
Router 8
	 Node 8 lat 1
Router 9
	 Node 9 lat 1
Router 10
	 Node 10 lat 1
Router 11
	 Node 11 lat 1
Router 12
	 Node 12 lat 1
Router 13
	 Node 13 lat 1
Router 14
	 Node 14 lat 1
Router 15
	 Node 15 lat 1
Router 16
	 Node 16 lat 1
Router 17
	 Node 17 lat 1
Router 18
	 Node 18 lat 1
Router 19
	 Node 19 lat 1
Router 20
	 Node 20 lat 1
Router 21
	 Node 21 lat 1
Router 22
	 Node 22 lat 1
Router 23
	 Node 23 lat 1
Router 24
	 Node 24 lat 1
Router 25
	 Node 25 lat 1
Router 26
	 Node 26 lat 1
Router 27
	 Node 27 lat 1
Router 28
	 Node 28 lat 1
Router 29
	 Node 29 lat 1
Router 30
	 Node 30 lat 1
Router 31
	 Node 31 lat 1
Router 32
	 Node 32 lat 1
Router 33
	 Node 33 lat 1
Router 34
	 Node 34 lat 1
Router 35
	 Node 35 lat 1
Router 36
	 Node 36 lat 1

*****************router to router listing************
Router 0
	 Router 1 lat 1
	 Router 36 lat 3
Router 1
	 Router 0 lat 1
	 Router 2 lat 1
	 Router 7 lat 5
Router 2
	 Router 1 lat 1
	 Router 3 lat 1
	 Router 8 lat 5
Router 3
	 Router 2 lat 1
	 Router 4 lat 1
	 Router 9 lat 2
Router 4
	 Router 3 lat 1
	 Router 5 lat 1
	 Router 10 lat 2
Router 5
	 Router 4 lat 1
	 Router 6 lat 1
	 Router 11 lat 2
Router 6
	 Router 5 lat 1
	 Router 8 lat 2
	 Router 12 lat 2
Router 7
	 Router 1 lat 5
	 Router 8 lat 1
	 Router 13 lat 2
	 Router 17 lat 5
Router 8
	 Router 2 lat 5
	 Router 6 lat 2
	 Router 7 lat 1
	 Router 9 lat 6
	 Router 14 lat 2
Router 9
	 Router 3 lat 2
	 Router 8 lat 6
	 Router 10 lat 1
	 Router 15 lat 5
Router 10
	 Router 4 lat 2
	 Router 9 lat 1
	 Router 11 lat 1
	 Router 16 lat 5
Router 11
	 Router 5 lat 2
	 Router 10 lat 1
	 Router 12 lat 1
	 Router 17 lat 2
Router 12
	 Router 6 lat 2
	 Router 11 lat 1
	 Router 19 lat 2
Router 13
	 Router 7 lat 2
	 Router 14 lat 1
	 Router 19 lat 2
Router 14
	 Router 8 lat 2
	 Router 13 lat 1
	 Router 20 lat 2
Router 15
	 Router 9 lat 5
	 Router 16 lat 1
	 Router 21 lat 2
Router 16
	 Router 10 lat 5
	 Router 15 lat 1
	 Router 17 lat 6
Router 17
	 Router 7 lat 5
	 Router 11 lat 2
	 Router 16 lat 6
	 Router 18 lat 1
	 Router 20 lat 3
	 Router 23 lat 5
Router 18
	 Router 17 lat 1
	 Router 24 lat 5
Router 19
	 Router 12 lat 2
	 Router 13 lat 2
	 Router 20 lat 1
	 Router 26 lat 2
Router 20
	 Router 14 lat 2
	 Router 17 lat 3
	 Router 19 lat 1
	 Router 21 lat 1
	 Router 25 lat 3
Router 21
	 Router 15 lat 2
	 Router 20 lat 1
	 Router 22 lat 1
	 Router 27 lat 2
Router 22
	 Router 21 lat 1
	 Router 23 lat 1
	 Router 28 lat 2
Router 23
	 Router 17 lat 5
	 Router 22 lat 1
	 Router 24 lat 1
	 Router 25 lat 5
	 Router 29 lat 2
Router 24
	 Router 18 lat 5
	 Router 23 lat 1
	 Router 30 lat 2
Router 25
	 Router 20 lat 3
	 Router 23 lat 5
	 Router 26 lat 1
	 Router 27 lat 2
Router 26
	 Router 19 lat 2
	 Router 25 lat 1
Router 27
	 Router 21 lat 2
	 Router 25 lat 2
	 Router 33 lat 2
	 Router 36 lat 3
Router 28
	 Router 22 lat 2
	 Router 29 lat 1
	 Router 34 lat 2
Router 29
	 Router 23 lat 2
	 Router 28 lat 1
	 Router 30 lat 1
	 Router 35 lat 2
Router 30
	 Router 24 lat 2
	 Router 29 lat 1
	 Router 32 lat 2
	 Router 36 lat 3
Router 31
	 Router 32 lat 1
Router 32
	 Router 30 lat 2
	 Router 31 lat 1
	 Router 33 lat 6
Router 33
	 Router 27 lat 2
	 Router 32 lat 6
Router 34
	 Router 28 lat 2
	 Router 35 lat 1
Router 35
	 Router 29 lat 2
	 Router 34 lat 1
	 Router 36 lat 3
Router 36
	 Router 0 lat 3
	 Router 27 lat 3
	 Router 30 lat 3
	 Router 35 lat 3
==========================Node to Router =====================
router 0 radix 3
	 connected to node 0 at outport 0 lat 1
router 1 radix 4
	 connected to node 1 at outport 0 lat 1
router 2 radix 4
	 connected to node 2 at outport 0 lat 1
router 3 radix 4
	 connected to node 3 at outport 0 lat 1
router 4 radix 4
	 connected to node 4 at outport 0 lat 1
router 5 radix 4
	 connected to node 5 at outport 0 lat 1
router 6 radix 4
	 connected to node 6 at outport 0 lat 1
router 7 radix 5
	 connected to node 7 at outport 0 lat 1
router 8 radix 6
	 connected to node 8 at outport 0 lat 1
router 9 radix 5
	 connected to node 9 at outport 0 lat 1
router 10 radix 5
	 connected to node 10 at outport 0 lat 1
router 11 radix 5
	 connected to node 11 at outport 0 lat 1
router 12 radix 4
	 connected to node 12 at outport 0 lat 1
router 13 radix 4
	 connected to node 13 at outport 0 lat 1
router 14 radix 4
	 connected to node 14 at outport 0 lat 1
router 15 radix 4
	 connected to node 15 at outport 0 lat 1
router 16 radix 4
	 connected to node 16 at outport 0 lat 1
router 17 radix 7
	 connected to node 17 at outport 0 lat 1
router 18 radix 3
	 connected to node 18 at outport 0 lat 1
router 19 radix 5
	 connected to node 19 at outport 0 lat 1
router 20 radix 6
	 connected to node 20 at outport 0 lat 1
router 21 radix 5
	 connected to node 21 at outport 0 lat 1
router 22 radix 4
	 connected to node 22 at outport 0 lat 1
router 23 radix 6
	 connected to node 23 at outport 0 lat 1
router 24 radix 4
	 connected to node 24 at outport 0 lat 1
router 25 radix 5
	 connected to node 25 at outport 0 lat 1
router 26 radix 3
	 connected to node 26 at outport 0 lat 1
router 27 radix 5
	 connected to node 27 at outport 0 lat 1
router 28 radix 4
	 connected to node 28 at outport 0 lat 1
router 29 radix 5
	 connected to node 29 at outport 0 lat 1
router 30 radix 5
	 connected to node 30 at outport 0 lat 1
router 31 radix 2
	 connected to node 31 at outport 0 lat 1
router 32 radix 4
	 connected to node 32 at outport 0 lat 1
router 33 radix 3
	 connected to node 33 at outport 0 lat 1
router 34 radix 3
	 connected to node 34 at outport 0 lat 1
router 35 radix 4
	 connected to node 35 at outport 0 lat 1
router 36 radix 5
	 connected to node 36 at outport 0 lat 1
==========================Router to Router =====================
router 0
	 connected to router 1 using link 0 at outport 1 lat 1
	 connected to router 36 using link 1 at outport 2 lat 3
router 1
	 connected to router 0 using link 2 at outport 1 lat 1
	 connected to router 2 using link 3 at outport 2 lat 1
	 connected to router 7 using link 4 at outport 3 lat 5
router 2
	 connected to router 1 using link 5 at outport 1 lat 1
	 connected to router 3 using link 6 at outport 2 lat 1
	 connected to router 8 using link 7 at outport 3 lat 5
router 3
	 connected to router 2 using link 8 at outport 1 lat 1
	 connected to router 4 using link 9 at outport 2 lat 1
	 connected to router 9 using link 10 at outport 3 lat 2
router 4
	 connected to router 3 using link 11 at outport 1 lat 1
	 connected to router 5 using link 12 at outport 2 lat 1
	 connected to router 10 using link 13 at outport 3 lat 2
router 5
	 connected to router 4 using link 14 at outport 1 lat 1
	 connected to router 6 using link 15 at outport 2 lat 1
	 connected to router 11 using link 16 at outport 3 lat 2
router 6
	 connected to router 5 using link 17 at outport 1 lat 1
	 connected to router 8 using link 18 at outport 2 lat 2
	 connected to router 12 using link 19 at outport 3 lat 2
router 7
	 connected to router 1 using link 20 at outport 1 lat 5
	 connected to router 8 using link 21 at outport 2 lat 1
	 connected to router 13 using link 22 at outport 3 lat 2
	 connected to router 17 using link 23 at outport 4 lat 5
router 8
	 connected to router 2 using link 24 at outport 1 lat 5
	 connected to router 6 using link 25 at outport 2 lat 2
	 connected to router 7 using link 26 at outport 3 lat 1
	 connected to router 9 using link 27 at outport 4 lat 6
	 connected to router 14 using link 28 at outport 5 lat 2
router 9
	 connected to router 3 using link 29 at outport 1 lat 2
	 connected to router 8 using link 30 at outport 2 lat 6
	 connected to router 10 using link 31 at outport 3 lat 1
	 connected to router 15 using link 32 at outport 4 lat 5
router 10
	 connected to router 4 using link 33 at outport 1 lat 2
	 connected to router 9 using link 34 at outport 2 lat 1
	 connected to router 11 using link 35 at outport 3 lat 1
	 connected to router 16 using link 36 at outport 4 lat 5
router 11
	 connected to router 5 using link 37 at outport 1 lat 2
	 connected to router 10 using link 38 at outport 2 lat 1
	 connected to router 12 using link 39 at outport 3 lat 1
	 connected to router 17 using link 40 at outport 4 lat 2
router 12
	 connected to router 6 using link 41 at outport 1 lat 2
	 connected to router 11 using link 42 at outport 2 lat 1
	 connected to router 19 using link 43 at outport 3 lat 2
router 13
	 connected to router 7 using link 44 at outport 1 lat 2
	 connected to router 14 using link 45 at outport 2 lat 1
	 connected to router 19 using link 46 at outport 3 lat 2
router 14
	 connected to router 8 using link 47 at outport 1 lat 2
	 connected to router 13 using link 48 at outport 2 lat 1
	 connected to router 20 using link 49 at outport 3 lat 2
router 15
	 connected to router 9 using link 50 at outport 1 lat 5
	 connected to router 16 using link 51 at outport 2 lat 1
	 connected to router 21 using link 52 at outport 3 lat 2
router 16
	 connected to router 10 using link 53 at outport 1 lat 5
	 connected to router 15 using link 54 at outport 2 lat 1
	 connected to router 17 using link 55 at outport 3 lat 6
router 17
	 connected to router 7 using link 56 at outport 1 lat 5
	 connected to router 11 using link 57 at outport 2 lat 2
	 connected to router 16 using link 58 at outport 3 lat 6
	 connected to router 18 using link 59 at outport 4 lat 1
	 connected to router 20 using link 60 at outport 5 lat 3
	 connected to router 23 using link 61 at outport 6 lat 5
router 18
	 connected to router 17 using link 62 at outport 1 lat 1
	 connected to router 24 using link 63 at outport 2 lat 5
router 19
	 connected to router 12 using link 64 at outport 1 lat 2
	 connected to router 13 using link 65 at outport 2 lat 2
	 connected to router 20 using link 66 at outport 3 lat 1
	 connected to router 26 using link 67 at outport 4 lat 2
router 20
	 connected to router 14 using link 68 at outport 1 lat 2
	 connected to router 17 using link 69 at outport 2 lat 3
	 connected to router 19 using link 70 at outport 3 lat 1
	 connected to router 21 using link 71 at outport 4 lat 1
	 connected to router 25 using link 72 at outport 5 lat 3
router 21
	 connected to router 15 using link 73 at outport 1 lat 2
	 connected to router 20 using link 74 at outport 2 lat 1
	 connected to router 22 using link 75 at outport 3 lat 1
	 connected to router 27 using link 76 at outport 4 lat 2
router 22
	 connected to router 21 using link 77 at outport 1 lat 1
	 connected to router 23 using link 78 at outport 2 lat 1
	 connected to router 28 using link 79 at outport 3 lat 2
router 23
	 connected to router 17 using link 80 at outport 1 lat 5
	 connected to router 22 using link 81 at outport 2 lat 1
	 connected to router 24 using link 82 at outport 3 lat 1
	 connected to router 25 using link 83 at outport 4 lat 5
	 connected to router 29 using link 84 at outport 5 lat 2
router 24
	 connected to router 18 using link 85 at outport 1 lat 5
	 connected to router 23 using link 86 at outport 2 lat 1
	 connected to router 30 using link 87 at outport 3 lat 2
router 25
	 connected to router 20 using link 88 at outport 1 lat 3
	 connected to router 23 using link 89 at outport 2 lat 5
	 connected to router 26 using link 90 at outport 3 lat 1
	 connected to router 27 using link 91 at outport 4 lat 2
router 26
	 connected to router 19 using link 92 at outport 1 lat 2
	 connected to router 25 using link 93 at outport 2 lat 1
router 27
	 connected to router 21 using link 94 at outport 1 lat 2
	 connected to router 25 using link 95 at outport 2 lat 2
	 connected to router 33 using link 96 at outport 3 lat 2
	 connected to router 36 using link 97 at outport 4 lat 3
router 28
	 connected to router 22 using link 98 at outport 1 lat 2
	 connected to router 29 using link 99 at outport 2 lat 1
	 connected to router 34 using link 100 at outport 3 lat 2
router 29
	 connected to router 23 using link 101 at outport 1 lat 2
	 connected to router 28 using link 102 at outport 2 lat 1
	 connected to router 30 using link 103 at outport 3 lat 1
	 connected to router 35 using link 104 at outport 4 lat 2
router 30
	 connected to router 24 using link 105 at outport 1 lat 2
	 connected to router 29 using link 106 at outport 2 lat 1
	 connected to router 32 using link 107 at outport 3 lat 2
	 connected to router 36 using link 108 at outport 4 lat 3
router 31
	 connected to router 32 using link 109 at outport 1 lat 1
router 32
	 connected to router 30 using link 110 at outport 1 lat 2
	 connected to router 31 using link 111 at outport 2 lat 1
	 connected to router 33 using link 112 at outport 3 lat 6
router 33
	 connected to router 27 using link 113 at outport 1 lat 2
	 connected to router 32 using link 114 at outport 2 lat 6
router 34
	 connected to router 28 using link 115 at outport 1 lat 2
	 connected to router 35 using link 116 at outport 2 lat 1
router 35
	 connected to router 29 using link 117 at outport 1 lat 2
	 connected to router 34 using link 118 at outport 2 lat 1
	 connected to router 36 using link 119 at outport 3 lat 3
router 36
	 connected to router 0 using link 120 at outport 1 lat 3
	 connected to router 27 using link 121 at outport 2 lat 3
	 connected to router 30 using link 122 at outport 3 lat 3
	 connected to router 35 using link 123 at outport 4 lat 3
========================== Routing table  =====================
Trace is finished in 52 cycles
Class 0:
Packet latency average = 16.0547
	minimum = 12
	maximum = 37
Network latency average = 16.0547
	minimum = 12
	maximum = 37
Slowest packet = 119
Flit latency average = 16.0547
	minimum = 12
	maximum = 37
Slowest flit = 119
Fragmentation average = 0
	minimum = 0
	maximum = 0
Injected packet rate average = 0.0665281
	minimum = 0 (at node 8)
	maximum = 0.307692 (at node 0)
Accepted packet rate average = 0.0665281
	minimum = 0 (at node 8)
	maximum = 0.307692 (at node 0)
Injected flit rate average = 0.0665281
	minimum = 0 (at node 8)
	maximum = 0.307692 (at node 0)
Accepted flit rate average= 0.0665281
	minimum = 0 (at node 8)
	maximum = 0.307692 (at node 0)
Injected packet length average = 1
Accepted packet length average = 1
Total in-flight flits = 0 (0 measured)
latency change    = 1
throughput change = 1
Too many sample periods needed to converge
Simulation unstable, ending ...
Total run time 3.18134
L = 2 K = 8.1 M = 2 N = 1
L = 6 K = 9.8 M = 5 N = 1
L = 10 K = 9 M = 9 N = 1
L = 4 K = 8.1 M = 4 N = 1
L = 12 K = 9.8 M = 10 N = 1
-----------------------------------------
- OCN Power Summary
- Completion Time:         52
- Flit Widths:            32
- Channel Wire Power:      2.61456
- Channel Clock Power:     0.643809
- Channel Retiming Power:  0.0319605
- Channel Leakage Power:   0.257404
- Input Read Power:        0.0541572
- Input Write Power:       0.0541572
- Input Leakage Power:     0.0445133
- Switch Power:            0.0323845
- Switch Control Power:    0.0169791
- Switch Leakage Power:    0.0523635
- Output DFF Power:        0.00943098
- Output Clk Power:        0.152431
- Output Control Power:    0.00486717
- Total Power:             3.96902
-----------------------------------------

-----------------------------------------
- OCN Area Summary
- Channel Area:  0.0498808
- Switch  Area:  0.01932
- Input  Area:   0.0474808
- Output  Area:  0.00422052
- Total Area:    0.120902
-----------------------------------------
